15
1,3-dilsilacyclopentane (MP2/6-311++g(d,p))
C                 -0.70147300    1.37356200   -0.33164100
C                  0.70177600    1.37377600    0.33163100
C                 -0.00008400   -1.45827700   -0.00015200
H                 -1.30734600    2.22519000   -0.00419400
H                 -0.59509300    1.46291200   -1.42118400
H                  0.59587000    1.46452600    1.42106400
H                  1.30763000    2.22482200    0.00263000
H                  2.05811000   -0.26941000   -1.44196300
H                  2.57389700   -0.67378100    0.87273700
H                 -0.03799400   -2.10919200   -0.87914600
H                  0.03762000   -2.10847900    0.87940800
H                 -2.57428900   -0.67280300   -0.87262500
H                 -2.05787900   -0.26986600    1.44217400
Si                -1.49579200   -0.29927000    0.07069500
Si                 1.49567900   -0.29953100   -0.07058600